<?xml version="1.0" encoding="UTF-8"?>

<!-- generated on 2026-01-20T21:07:38.711288+05:30 by Eclipse SUMO sumo 1.25.0
-->

<sumoConfiguration xmlns:xsi="http://www.w3.org/2001/XMLSchema-instance" xsi:noNamespaceSchemaLocation="http://sumo.dlr.de/xsd/sumoConfiguration.xsd">

    <input>
        <net-file value="traffic.net.xml"/>
        <route-files value="vehicles.rou.xml"/>
    </input>

</sumoConfiguration>
