<?xml version="1.0" encoding="UTF-8"?>

<!-- generated on 2026-01-18T16:27:24.836083+05:30 by Eclipse SUMO netedit 1.25.0
-->

<routes xmlns:xsi="http://www.w3.org/2001/XMLSchema-instance" xsi:noNamespaceSchemaLocation="http://sumo.dlr.de/xsd/routes_file.xsd">
    <!-- Routes -->
    <route id="r_0" edges="E1 -E4"/>
    <!-- Vehicles, persons and containers (sorted by depart) -->
    <trip id="t_0" type="DEFAULT_CONTAINERTYPE" depart="0.00" from="E1" to="-E4"/>
</routes>
