<?xml version="1.0" encoding="UTF-8"?>

<!-- generated on 2026-01-20T21:00:34.169723+05:30 by Eclipse SUMO netedit 1.25.0
-->

<routes xmlns:xsi="http://www.w3.org/2001/XMLSchema-instance" xsi:noNamespaceSchemaLocation="http://sumo.dlr.de/xsd/routes_file.xsd">
    <!-- Routes -->
    <route id="r_0" edges="E1 -E4"/>
    <route id="r_1" edges="E1 -E3"/>
    <route id="r_10" edges="E4 -E2"/>
    <route id="r_11" edges="E4 -E1"/>
    <route id="r_2" edges="E1 -E2"/>
    <route id="r_3" edges="E2 -E1"/>
    <route id="r_4" edges="E2 -E4"/>
    <route id="r_5" edges="E2 -E3"/>
    <route id="r_6" edges="E3 -E2"/>
    <route id="r_7" edges="E3 -E1"/>
    <route id="r_8" edges="E3 -E4"/>
    <route id="r_9" edges="E4 -E3"/>
    <!-- Vehicles, persons and containers (sorted by depart) -->
    <trip id="t_10" depart="0.00" color="green" from="E3" to="-E4"/>
    <trip id="t_11" depart="0.00" color="green" from="E4" to="-E2"/>
    <trip id="t_12" depart="0.00" color="red" from="E4" to="-E1"/>
    <trip id="t_5" depart="0.00" color="cyan" from="E3" to="-E2"/>
    <trip id="t_6" depart="0.00" color="cyan" from="E4" to="-E3"/>
    <trip id="t_9" depart="0.00" from="E3" to="-E1"/>
    <flow id="f_0" begin="0.00" end="3600.00" perHour="1800.00" from="E1" to="-E4"/>
    <flow id="f_1" begin="0.00" end="3600.00" perHour="1800.00" color="red" from="E1" to="-E3"/>
    <flow id="f_10" begin="0.00" number="1800" period="2" color="red" from="E4" to="-E3"/>
    <flow id="f_11" begin="0.00" number="1800" period="2" color="black" from="E4" to="-E2"/>
    <flow id="f_12" begin="0.00" number="1800" perHour="1800.00" from="E4" to="-E1"/>
    <flow id="f_2" begin="0.00" end="3600.00" perHour="1800.00" color="0,128,0" from="E1" to="-E2"/>
    <flow id="f_3" begin="0.00" end="3600.00" perHour="1800.00" from="E2" to="-E1"/>
    <flow id="f_4" begin="0.00" end="3600.00" perHour="1800.00" color="red" from="E2" to="-E1"/>
    <flow id="f_5" begin="0.00" end="3600.00" number="1800" color="magenta" from="E2" to="-E4"/>
    <flow id="f_6" begin="0.00" end="3600.00" number="1800" color="cyan" from="E2" to="-E3"/>
    <flow id="f_7" begin="0.00" end="3600.00" number="1800" color="cyan" from="E3" to="-E2"/>
    <flow id="f_8" begin="0.00" number="1800" perHour="1800.00" from="E3" to="-E1"/>
    <flow id="f_9" begin="0.00" number="1800" period="2" color="red" from="E3" to="-E4"/>
</routes>
